/*--------------------------------*- C++ -*----------------------------------*\
FoamFile { version 2.0; format ascii; class dictionary; object fvSolution; }
// * * * * * * * * * * * * * * * * * * * * * * * * * * * * * * * * * * * * * //

solvers
{
    p
    {
        solver    GAMG;
        tolerance    1e-06;
        relTol    0.1;
        smoother    GaussSeidel;
    }
    U
    {
        solver    smoothSolver;
        smoother    GaussSeidel;
        tolerance    1e-05;
        relTol    0.1;
    }
    k
    {
        solver    smoothSolver;
        smoother    GaussSeidel;
        tolerance    1e-05;
        relTol    0.1;
    }
    epsilon
    {
        solver    smoothSolver;
        smoother    GaussSeidel;
        tolerance    1e-05;
        relTol    0.1;
    }
    omega
    {
        solver    smoothSolver;
        smoother    GaussSeidel;
        tolerance    1e-05;
        relTol    0.1;
    }
}

SIMPLE
{
    nNonOrthogonalCorrectors    0;
    consistent    yes;
    residualControl
    {
        p    1e-06;
        U    1e-06;
        k    1e-06;
        omega    1e-06;
    }
}

relaxationFactors
{
    fields
    {
        p    0.3;
    }
    equations
    {
        U    0.7;
        k    0.7;
        epsilon    0.7;
        omega    0.7;
    }
}

// ************************************************************************* //
