/*--------------------------------*- C++ -*----------------------------------*\
| =========                 |                                                 |
| \\      /  F ield         | OpenFOAM: The Open Source CFD Toolbox           |
|  \\    /   O peration     | Version:  v2406                                 |
|   \\  /    A nd           | Website:  www.openfoam.com                      |
|    \\/     M anipulation  |                                                 |
\*---------------------------------------------------------------------------*/
FoamFile
{
    version     2.0;
    format      ascii;
    class       dictionary;
    object      controlDict;
}
// * * * * * * * * * * * * * * * * * * * * * * * * * * * * * * * * * * * * * //

application     simpleFoam;

startFrom       startTime;

startTime       0;

stopAt          endTime;

endTime         100;

deltaT          1;

writeControl    timeStep;

writeInterval   100;

purgeWrite      10;

writeFormat     ascii;

writePrecision  8;

writeCompression off;

timeFormat      general;

timePrecision   6;

runTimeModifiable true;

functions
{
    forceCoeffs
    {
        type            forceCoeffs;
        libs            ("libforces.so");
        writeControl    timeStep;
        writeInterval   1;
        
        patches         (walls);
        rho             rhoInf;
        rhoInf          1.225;
        liftDir         (0 1 0);
        dragDir         (1 0 0);
        CofR            (0 0 0);
        pitchAxis       (0 0 1);
        magUInf         30;
        lRef            1.0;
        Aref            1.0;
    }
    
    forces
    {
        type            forces;
        libs            ("libforces.so");
        writeControl    timeStep;
        writeInterval   1;
        
        patches         (walls);
        rho             rhoInf;
        rhoInf          1.225;
        CofR            (0 0 0);
    }
}

// ************************************************************************* //
